test/TEST190523/MAI_Losses.Txt

LOSSES REPORT

Power Delivery Element Loss Report

Element                  kW Losses    % of Power   kvar Losses

"Line.MV3PMAI0"            0.03311,     0.00     0.0861213
"Line.MV3PMAI1"            0.07442,     0.00     0.193619
"Line.MV3PMAI2"            0.75966,     0.02     1.97652
"Line.MV3PMAI3"            0.03179,     0.00     0.0827026
"Line.MV3PMAI4"            0.71706,     0.02     1.86958
"Line.MV1PMAI5"            0.00000,      0.0     -0.00374505
"Line.MV3PMAI6"            0.13178,     0.00     0.343225
"Line.MV1PMAI7"            0.00010,      0.0     -0.00144501
"Line.MV1PMAI8"            0.00000,      0.0     -0.00261764
"Line.MV3PMAI9"            0.74691,     0.02     0.971285
"Line.MV3PMAI10"           0.46351,     0.02     1.19919
"Line.MV3PMAI11"           0.00000,      0.0     -0.00737135
"Line.MV3PMAI12"           0.03111,     0.01     0.0208026
"Line.MV3PMAI13"           0.01555,     0.00     0.0104009
"Line.MV1PMAI14"           0.00025,      0.0     -0.00374327
"Line.MV3PMAI15"           0.37749,     0.01     0.976749
"Line.MV3PMAI16"           0.00000,      0.0     -0.000491657
"Line.MV1PMAI17"           0.00000,      0.0     -0.0208746
"Line.MV1PMAI18"           0.00018,      0.0     -0.00266187
"Line.MV1PMAI19"           0.00000,      0.0     -0.0233715
"Line.MV3PMAI20"           0.00000,      0.0     -0.150891
"Line.MV3PMAI21"           0.01555,     0.00     0.0104017
"Line.MV3PMAI22"           0.00334,     0.00     0.0042116
"Line.MV3PMAI23"           0.00000,      0.0     -0.0129805
"Line.MV3PMAI24"           0.00005,      0.0     -0.013798
"Line.MV3PMAI25"           0.13943,     0.00     0.360742
"Line.MV3PMAI26"           0.00008,      0.0     -0.0233057
"Line.MV3PMAI27"           0.00008,      0.0     -0.0255862
"Line.MV3PMAI28"           0.00000,      0.0     -0.0258843
"Line.MV1PMAI29"           0.00001,      0.0     -0.00953656
"Line.MV1PMAI30"           0.00000,      0.0     -0.0556052
"Line.MV1PMAI31"           0.00015,      0.0     -0.00234276
"Line.MV1PMAI32"           0.00024,      0.0     -0.00381679
"Line.MV3PMAI33"           0.00000,      0.0     -0.0230373
"Line.MV3PMAI34"           0.00000,      0.0     -0.0952165
"Line.MV1PMAI35"           0.00000,      0.0     -0.000893803
"Line.MV1PMAI36"           0.00000,      0.0     -0.021469
"Line.MV1PMAI37"           0.00001,      0.0     -0.0229756
"Line.MV1PMAI38"           0.00014,      0.0     -0.0897748
"Line.MV3PMAI39"           0.24985,     0.01     0.646814
"Line.MV3PMAI40"           0.35188,     0.01     0.910957
"Line.MV3PMAI41"           0.00000,      0.0     -0.0136953
"Line.MV3PMAI42"           0.36983,     0.01     0.957435
"Line.MV3PMAI43"           0.43310,     0.01     1.12138
"Line.MV3PMAI44"           0.00000,      0.0     -0.0157354
"Line.MV3PMAI45"           0.44534,     0.02     1.15289
"Line.MV3PMAI46"           0.00000,      0.0     -0.0113283
"Line.MV3PMAI47"           0.00000,      0.0     -0.0118714
"Line.MV3PMAI48"           0.00000,      0.0     -0.0113077
"Line.MV3PMAI49"           0.00000,      0.0     -0.371152
"Line.MV3PMAI50"           0.04299,     0.00     0.111305
"Line.MV3PMAI51"           0.44402,     0.02     1.14952
"Line.MV3PMAI52"           0.00000,      0.0     -0.0129175
"Line.MV3PMAI53"           0.00000,      0.0     -0.0251533
"Line.MV3PMAI54"           0.00002,      0.0     -0.0209817
"Line.MV3PMAI55"           0.33944,     0.01     0.879183
"Line.MV3PMAI56"           0.00003,      0.0     -0.021779
"Line.MV3PMAI57"           0.39341,     0.01     1.01897
"Line.MV3PMAI58"           0.00003,      0.0     -0.0301381
"Line.MV3PMAI59"           0.00003,      0.0     -0.0253886
"Line.MV1PMAI60"           0.00010,      0.0     -0.00434204
"Line.MV3PMAI61"           0.00898,     0.00     0.0232792
"Line.MV1PMAI62"           0.00000,      0.0     -0.00128497
"Line.MV3PMAI63"           0.33203,     0.01     0.860717
"Line.MV3PMAI64"           0.45046,     0.02     1.16588
"Line.MV3PMAI65"           0.10214,     0.00     0.264775
"Line.MV3PMAI66"           0.00000,      0.0     -0.0254166
"Line.MV3PMAI67"           0.00000,      0.0     -0.0235702
"Line.MV1PMAI68"           0.00000,      0.0     -0.000132214
"Line.MV3PMAI69"           0.35485,     0.01     0.91853
"Line.MV1PMAI70"           0.00000,      0.0     -0.0643953
"Line.MV1PMAI71"           0.00017,      0.0     -0.00739531
"Line.MV1PMAI72"           0.00017,      0.0     -0.00776165
"Line.MV3PMAI73"           0.00017,      0.0     -0.0128089
"Line.MV3PMAI74"           0.34498,     0.01     0.890898
"Line.MV3PMAI75"           0.00054,      0.0     -0.49617
"Line.MV3PMAI76"           0.39751,     0.01     1.02654
"Line.MV3PMAI77"           0.00006,      0.0     -0.0226387
"Line.MV3PMAI78"           0.16314,     0.01     0.379443
"Line.MV3PMAI79"           0.08157,     0.01     0.189719
"Line.MV3PMAI80"           0.00004,      0.0     -0.0055817
"Line.MV3PMAI81"           0.00898,     0.00     0.0232792
"Line.MV3PMAI82"           0.00006,      0.0     -0.0990118
"Line.MV3PMAI83"           0.16731,     0.01     0.412904
"Line.MV3PMAI84"           0.08365,     0.00     0.206453
"Line.MV3PMAI85"           0.80266,     0.02     2.08838
"Line.MV3PMAI86"           0.08365,     0.00     0.206452
"Line.MV1PMAI87"           0.00050,      0.0     -0.00061997
"Line.MV3PMAI88"           0.15815,     0.01     0.40914
"Line.MV3PMAI89"           0.08157,     0.01     0.189723
"Line.MV3PMAI90"           0.00000,      0.0     -0.0128429
"Line.MV3PMAI91"           0.00000,      0.0     -0.0435348
"Line.MV3PMAI92"           0.14705,     0.01     0.185661
"Line.MV3PMAI93"           0.06092,     0.01     0.0769388
"Line.MV3PMAI94"           0.00001,      0.0     -0.187626
"Line.MV3PMAI95"           0.03643,     0.00     0.0459914
"Line.MV3PMAI96"           0.07572,     0.01     0.0966696
"Line.MV3PMAI97"           0.12609,     0.01     0.16099
"Line.MV3PMAI98"           0.00046,      0.0     -0.00948622
"Line.MV1PMAI99"           0.00000,      0.0     -0.00433238
"Line.MV3PMAI100"          0.12034,     0.01     0.148878
"Line.MV3PMAI101"          0.11645,     0.01     0.146515
"Line.MV1PMAI102"          0.00004,      0.0     -8.43485E-005
"Line.MV1PMAI103"          0.00195,     0.00     -0.00414028
"Line.MV1PMAI104"          0.00004,      0.0     -8.35603E-005
"Line.MV1PMAI105"          0.00004,      0.0     -8.43483E-005
"Line.MV1PMAI106"          0.00008,      0.0     -0.000159096
"Line.MV3PMAI107"          0.11791,     0.01     0.143151
"Line.MV3PMAI108"          0.11904,     0.01     0.144522
"Line.MV3PMAI109"          0.12854,     0.01     0.156071
"Line.MV1PMAI110"          0.00022,      0.0     -0.00448291
"Line.MV3PMAI111"          0.09291,     0.01     0.109822
"Line.MV3PMAI112"          0.00000,      0.0     -0.0729403
"Line.MV1PMAI113"          0.00181,     0.00     -0.0034459
"Line.MV1PMAI114"          0.00062,      0.0     -0.00117836
"Line.MV1PMAI115"          0.00008,      0.0     -0.000161762
"Line.MV1PMAI116"          0.00120,     0.00     -0.00428017
"Line.MV1PMAI117"          0.00000,      0.0     -0.00197633
"Line.MV1PMAI118"          0.00001,      0.0     -0.00336929
"Line.MV1PMAI119"          0.00027,      0.0     -0.00891268
"Line.MV1PMAI120"          0.00274,     0.00     -0.00598728
"Line.MV1PMAI121"          0.00005,      0.0     -0.00661005
"Line.MV1PMAI122"          0.00005,      0.0     -0.00475574
"Line.MV1PMAI123"          0.00004,      0.0     -0.00618584
"Line.MV1PMAI124"          0.00000,      0.0     -0.00218541
"Line.MV1PMAI125"          0.00061,      0.0     -0.00639389
"Line.MV1PMAI126"          0.00000,      0.0     -0.051555
"Line.MV1PMAI127"          0.00000,      0.0     -0.0558196
"Line.MV3PMAI128"          0.08796,     0.01     0.101608
"Line.MV1PMAI129"          0.00001,      0.0     -0.0294734
"Line.MV1PMAI130"          0.00000,      0.0     -0.0255924
"Line.MV1PMAI131"          0.00012,      0.0     -0.141053
"Line.MV1PMAI132"          0.00003,      0.0     -0.00830858
"Line.MV1PMAI133"          0.00002,      0.0     -0.00525117
"Line.MV1PMAI134"          0.00006,      0.0     -0.00581943
"Line.MV1PMAI135"          0.00053,      0.0     -0.00555886
"Line.MV1PMAI136"          0.00017,      0.0     -0.00687536
"Line.MV1PMAI137"          0.00003,      0.0     -0.00436143
"Line.MV1PMAI138"          0.00002,      0.0     -0.00507871
"Line.MV1PMAI139"          0.00002,      0.0     -0.00572965
"Line.MV1PMAI140"          0.00000,      0.0     -0.00753104
"Line.MV1PMAI141"          0.00000,      0.0     -0.00584745
"Line.MV3PMAI142"          0.00000,      0.0     -0.00394831
"Line.MV3PMAI143"          0.00000,      0.0     -0.124658
"Line.MV3PMAI144"          0.11510,     0.01     0.132974
"Line.MV3PMAI145"          0.10551,     0.01     0.123191
"Line.MV3PMAI146"          0.00000,      0.0     -0.0211202
"Line.MV1PMAI147"          0.00006,      0.0     -0.00600833
"Line.MV1PMAI148"          0.00000,      0.0     -0.00573655
"Line.MV3PMAI149"          0.04920,     0.01     0.0575253
"Line.MV3PMAI150"          0.00002,      0.0     -0.0106047
"Line.MV1PMAI151"          0.00000,      0.0     -0.000138605
"Line.MV1PMAI152"          0.00002,      0.0     -0.00331667
"Line.MV1PMAI153"          0.00002,      0.0     -0.00302619
"Line.MV1PMAI154"          0.00004,      0.0     -0.00538837
"Line.MV1PMAI155"          0.00004,      0.0     -0.00616729
"Line.MV1PMAI156"          0.00000,      0.0     -0.00524905
"Line.MV1PMAI157"          0.00000,      0.0     -0.00732055
"Line.MV1PMAI158"          0.00000,      0.0     -7.7163E-005
"Line.MV3PMAI159"          0.00000,      0.0     -0.0196733
"Line.MV3PMAI160"          0.00147,     0.00     -0.013534
"Line.MV3PMAI161"          0.02496,     0.00     0.0246572
"Line.MV3PMAI162"          0.00014,      0.0     -0.0011529
"Line.MV3PMAI163"          0.00041,      0.0     -0.0325957
"Line.MV3PMAI164"          0.06162,     0.01     0.0609093
"Line.MV3PMAI165"          0.00233,     0.00     -0.0304824
"Line.MV3PMAI166"          0.00235,     0.00     -0.0307658
"Line.MV1PMAI167"          0.00065,      0.0     -0.00425274
"Line.MV3PMAI168"          0.00043,      0.0     -0.0260692
"Line.MV1PMAI169"          0.00000,      0.0     -0.00163598
"Line.MV3PMAI170"          0.00031,      0.0     -0.0246155
"Line.MV3PMAI171"          0.00001,      0.0     -0.0242891
"Line.MV3PMAI172"          0.00002,      0.0     -0.0273178
"Line.MV3PMAI173"          0.00044,      0.0     -0.0299726
"Line.MV3PMAI174"          0.00026,      0.0     -0.0184426
"Line.MV1PMAI175"          0.00000,      0.0     -0.0132945
"Line.MV3PMAI176"          0.00052,      0.0     -0.309311
"Line.MV3PMAI177"          0.00001,      0.0     -0.0227284
"Line.MV3PMAI178"          0.00001,      0.0     -0.0229808
"Line.MV3PMAI179"          0.00001,      0.0     -0.0164684
"Line.MV3PMAI180"          0.00000,      0.0     -0.0416204
"Line.MV1PMAI181"          0.00049,      0.0     -0.00540651
"Line.MV3PMAI182"          0.00016,      0.0     -0.0306614
"Line.MV3PMAI183"          0.00018,      0.0     -0.0360193
"Line.MV3PMAI184"          0.05337,     0.01     0.0527563
"Line.MV3PMAI185"          0.00000,      0.0     -0.0177941
"Line.MV3PMAI186"          0.00000,      0.0     -0.0161132
"Line.MV3PMAI187"          0.06666,     0.01     0.0659621
"Line.MV3PMAI188"          0.00003,      0.0     -0.0237847
"Line.MV3PMAI189"          0.00026,      0.0     -0.0188752
"Line.MV1PMAI190"          0.00000,      0.0     -0.00163414
"Line.MV3PMAI191"          0.00023,      0.0     -0.0249912
"Line.MV3PMAI192"          0.00000,      0.0     -0.00830287
"Line.MV3PMAI193"          0.00001,      0.0     -0.00129609
"Line.MV3PMAI194"          0.00036,      0.0     -0.0268865
"Line.MV3PMAI195"          0.00000,      0.0     -0.255267
"Line.MV1PMAI196"          0.00000,      0.0     -0.00173545
"Line.MV3PMAI197"          0.00044,      0.0     -0.032658
"Line.MV3PMAI198"          0.00000,      0.0     -0.00565293
"Line.MV3PMAI199"          0.00000,      0.0     -0.0118039
...
"Transformer.HVMV"         0.00000,      0.0     53.4616
"Transformer.MAI1P_1"      0.28870,   100.00     1.06318
"Transformer.MAI1P_2"      0.18871,     6.56     0.507247
"Transformer.MAI1P_3"      0.36440,   100.00     1.31561
"Transformer.MAI1P_4"      0.24884,     1.52     0.593978
"Transformer.MAI1P_5"      0.17652,     3.00     0.428138
"Transformer.MAI1P_6"      0.28778,   100.00     1.05981
"Transformer.MAI1P_7"      0.16710,   100.00     0.417702
"Transformer.MAI1P_8"      0.15748,     1.81     0.36365
"Transformer.MAI1P_9"      0.23394,     1.58     0.569064
"Transformer.MAI1P_10"     0.21504,     1.86     0.542819
"Transformer.MAI1P_11"     0.18825,    22.12     0.508521
"Transformer.MAI1P_12"     0.29318,     5.64     1.07159
"Transformer.MAI1P_13"     0.29400,    21.18     1.08212
"Transformer.MAI1P_14"     0.29445,    12.17     1.0826
"Transformer.MAI1P_15"     0.19180,     7.55     0.516472
"Transformer.MAI1P_16"     0.08505,   100.00     0.212511
"Transformer.MAI1P_17"     0.30259,     1.62     0.498515
"Transformer.MAI1P_18"     0.28810,   100.00     1.06096
"Transformer.MAI1P_19"     0.18743,    14.31     0.506011
"Transformer.MAI1P_20"     0.10499,     2.34     0.224887
"Transformer.MAI1P_21"     0.28870,   100.00     1.06319
"Transformer.MAI1P_22"     0.18776,     2.42     0.446098
"Transformer.MAI1P_23"     0.29200,     5.60     1.06715
"Transformer.MAI1P_24"     0.28901,    16.04     1.06333
"Transformer.MAI1P_25"     0.30102,     3.06     1.07981
"Transformer.MAI1P_26"     0.29596,     4.24     1.07544
"Transformer.MAI1P_27"     0.11953,   100.00     0.33047
"Transformer.MAI1P_28"     0.28810,   100.00     1.06096
"Transformer.MAI1P_29"     0.33705,     1.74     1.12858
"Transformer.MAI1P_30"     0.16692,   100.00     0.417258
"Transformer.MAI1P_31"     0.28854,   100.00     1.0626
"Transformer.MAI1P_32"     0.22993,     1.75     0.56858
"Transformer.MAI1P_33"     0.18684,   100.00     0.504933
"Transformer.MAI1P_34"     0.44322,     1.81     0.629552
"Transformer.MAI1P_35"     0.16675,   100.00     0.416814
"Transformer.MAI1P_36"     0.16674,   100.00     0.416803
"Transformer.MAI1P_37"     0.28923,    10.06     1.06262
"Transformer.MAI1P_38"     0.87007,     3.09     0.722458
"Transformer.MAI1P_39"     0.20818,     2.15     0.535962
"Transformer.MAI1P_40"     0.23385,     1.59     0.569458
"Transformer.MAI1P_41"     0.29171,   100.00     1.07426
"Transformer.MAI1P_42"     0.29584,     5.50     1.0809
"Transformer.MAI1P_43"     0.29520,     6.05     1.08003
"Transformer.MAI1P_44"     0.29149,     5.32     1.06388
"Transformer.MAI1P_45"     0.17289,     3.68     0.424004
"Transformer.MAI1P_46"     0.28770,   100.00     1.05949
"Transformer.MAI1P_47"     0.16675,   100.00     0.416827
"Transformer.MAI1P_48"     0.25680,     1.46     0.531035
"Transformer.MAI1P_49"     0.29182,   100.00     1.07469
"Transformer.MAI1P_50"     0.49124,     1.85     0.677626
"Transformer.MAI1P_51"     0.19434,     1.61     0.400233
"Transformer.MAI1P_52"     0.18699,   100.00     0.505333
"Transformer.MAI1P_53"     0.28808,   100.00     1.06089
"Transformer.MAI1P_54"     0.14926,     1.93     0.355597
"Transformer.MAI1P_55"     0.29291,    12.76     1.0771
"Transformer.MAI1P_56"     0.20324,     2.30     0.526799
"Transformer.MAI1P_57"     0.28759,   100.00     1.0591
"Transformer.MAI1P_58"     0.16677,   100.00     0.416883
"Transformer.MAI1P_59"     0.29182,   100.00     1.07469
"Transformer.MAI1P_60"     0.19845,     3.05     0.524277
"Transformer.MAI1P_61"     0.53459,     1.51     0.891974
"Transformer.MAI1P_62"     0.17807,     2.97     0.432335
"Transformer.MAI1P_63"     0.43576,     1.35     1.28538
"Transformer.MAI1P_64"     0.19144,     4.95     0.513055
"Transformer.MAI1P_65"     0.16883,   100.00     0.422013
"Transformer.MAI1P_66"     0.16674,   100.00     0.416808
"Transformer.MAI1P_67"     0.15153,     1.92     0.360433
"Transformer.MAI1P_68"     0.25193,     1.48     0.597736
"Transformer.MAI1P_69"     0.18696,   100.00     0.505256
"Transformer.MAI1P_70"     0.19374,     1.99     0.450605
"Transformer.MAI1P_71"     0.27186,     1.43     0.553001
"Transformer.MAI1P_72"     0.19005,     9.34     0.512389
"Transformer.MAI1P_73"     0.20132,     2.66     0.527724
"Transformer.MAI1P_74"     0.29182,   100.00     1.07467
"Transformer.MAI1P_75"     0.19195,     2.10     0.449807
"Transformer.MAI1P_76"     0.18695,   100.00     0.505229
"Transformer.MAI1P_77"     0.25465,     1.50     0.531054
"Transformer.MAI1P_78"     0.19124,     6.18     0.514065
"Transformer.MAI1P_79"     0.16647,   100.00     0.416114
"Transformer.MAI1P_80"     0.51665,     1.34     0.964862
"Transformer.MAI1P_81"     0.16674,   100.00     0.416803
"Transformer.MAI1P_82"     0.13975,     2.18     0.346998
"Transformer.MAI1P_83"     0.20483,     1.81     0.467185
"Transformer.MAI1P_84"     0.20222,     1.81     0.461025
"Transformer.MAI1P_85"     0.29374,     5.65     1.07345
"Transformer.MAI1P_86"     0.17794,     3.13     0.432977
"Transformer.MAI1P_87"     0.29419,     7.67     1.07848
"Transformer.MAI1P_88"     0.18710,   100.00     0.50562
"Transformer.MAI1P_89"     0.18695,   100.00     0.505229
"Transformer.MAI1P_90"     0.14612,     2.01     0.352776
"Transformer.MAI1P_91"     0.28853,    18.53     1.06182
"Transformer.MAI1P_92"     0.22112,     1.85     0.554546
"Transformer.MAI1P_93"     0.37235,     3.75     1.32766
"Transformer.MAI1P_94"     0.18864,     2.15     0.444038
"Transformer.MAI1P_95"     0.28759,   100.00     1.0591
"Transformer.MAI1P_96"     0.16791,     8.46     0.418287
"Transformer.MAI1P_97"     0.29043,   100.00     1.06955
"Transformer.MAI1P_98"     0.29043,   100.00     1.06955
"Transformer.MAI1P_99"     0.16766,     9.64     0.417999
"Transformer.MAI1P_100"    0.16834,     7.16     0.418801
"Transformer.MAI1P_101"    0.36321,   100.00     1.31127
"Transformer.MAI1P_102"    0.11877,   100.00     0.328371
"Transformer.MAI1P_103"    0.28821,    12.10     1.05963
"Transformer.MAI1P_104"    0.16971,     4.90     0.419901
"Transformer.MAI1P_105"    0.17762,     2.82     0.429773
"Transformer.MAI1P_106"    0.18918,   100.00     0.511256
"Transformer.MAI1P_107"    0.16675,   100.00     0.416822
"Transformer.MAI1P_108"    0.16648,   100.00     0.416159
"Transformer.MAI1P_109"    0.13322,     2.56     0.342256
"Transformer.MAI1P_110"    0.19484,     3.51     0.517147
"Transformer.MAI1P_111"    0.11962,   100.00     0.330735
"Transformer.MAI1P_112"    0.11995,   100.00     0.331646
"Transformer.MAI1P_113"    0.29020,   100.00     1.06871
"Transformer.MAI1P_114"    1.16962,     1.49     2.37043
"Transformer.MAI1P_115"    0.18829,   100.00     0.508843
"Transformer.MAI1P_116"    0.18649,   100.00     0.503967
"Transformer.MAI1P_117"    0.36934,     1.50     1.18244
"Transformer.MAI1P_118"    0.15183,     1.90     0.359556
"Transformer.MAI1P_119"    0.20384,     2.26     0.527418
"Transformer.MAI1P_120"    0.16793,   100.00     0.419782
"Transformer.MAI1P_121"    0.36709,   100.00     1.32529
"Transformer.MAI1P_122"    0.36289,   100.00     1.31015
"Transformer.MAI1P_123"    0.16819,   100.00     0.420412
"Transformer.MAI1P_124"    0.22939,     1.55     0.495321
"Transformer.MAI1P_125"    0.23754,     1.58     0.505554
"Transformer.MAI1P_126"    0.16822,   100.00     0.420495
"Transformer.MAI1P_127"    0.16630,   100.00     0.41569
"Transformer.MAI1P_128"    0.33058,     1.39     0.627407
"Transformer.MAI1P_129"    0.18829,   100.00     0.508834
"Transformer.MAI1P_130"    0.29142,    28.53     1.07289
"Transformer.MAI1P_131"    0.27818,     1.59     0.47713
"Transformer.MAI1P_132"    0.18828,   100.00     0.508807
"Transformer.MAI1P_133"    0.08472,   100.00     0.21169
"Transformer.MAI1P_134"    0.20533,     2.18     0.529371
"Transformer.MAI1P_135"    0.36695,     5.39     1.31772
"Transformer.MAI1P_136"    0.23498,     1.59     0.572856
"Transformer.MAI1P_137"    0.20030,     2.65     0.524951
"Transformer.MAI1P_138"    0.31608,     2.31     1.10537
"Transformer.MAI1P_139"    0.26172,     1.48     0.538934
"Transformer.MAI1P_140"    0.15260,     1.89     0.361002
"Transformer.MAI1P_141"    0.16822,   100.00     0.420498
"Transformer.MAI1P_142"    0.18709,     2.27     0.443687
"Transformer.MAI1P_143"    0.29331,     6.03     1.0731
"Transformer.MAI1P_144"    0.28735,   100.00     1.0582
"Transformer.MAI1P_145"    0.29418,     6.29     1.07617
"Transformer.MAI1P_146"    0.16822,    36.30     0.420413
"Transformer.MAI1P_147"    0.42270,     1.30     0.835682
"Transformer.MAI1P_148"    0.28937,     7.46     1.06032
"Transformer.MAI1P_149"    0.21213,     2.00     0.541298
"Transformer.MAI1P_150"    0.43219,     1.34     1.27432
"Transformer.MAI1P_151"    0.34986,     1.33     0.732987
"Transformer.MAI1P_152"    0.29011,   100.00     1.06837
"Transformer.MAI1P_153"    0.19324,     1.60     0.395949
"Transformer.MAI1P_154"    0.36297,   100.00     1.31044
"Transformer.MAI1P_155"    0.19223,     2.07     0.450074
"Transformer.MAI1P_156"    0.18830,   100.00     0.508879
"Transformer.MAI1P_157"    0.17530,     1.67     0.381409
"Transformer.MAI1P_158"    0.19065,     5.91     0.512214
"Transformer.MAI1P_159"    0.18838,   100.00     0.509083
"Transformer.MAI1P_160"    0.36707,     1.58     1.1803
"Transformer.MAI1P_161"    0.19085,     2.15     0.448104
"Transformer.MAI1P_162"    0.12313,     4.66     0.333351
"Transformer.MAI1P_163"    0.29011,   100.00     1.06836
"Transformer.MAI1P_164"    0.18908,   100.00     0.510971
"Transformer.MAI1P_165"    0.18413,     1.65     0.389513
"Transformer.MAI1P_166"    0.20222,     2.48     0.527382
"Transformer.MAI1P_167"    0.20496,     2.20     0.528742
"Transformer.MAI1P_168"    0.16815,     6.34     0.417765
"Transformer.MAI1P_169"    0.32413,     2.12     0.365851
"Transformer.MAI1P_170"    0.16791,   100.00     0.419728
"Transformer.MAI1P_171"    0.15104,     1.95     0.358281
"Transformer.MAI1P_172"    0.19541,     1.94     0.45211
"Transformer.MAI1P_173"    0.36288,   100.00     1.31009
"Transformer.MAI1P_174"    0.12485,     3.81     0.334896
"Transformer.MAI1P_175"    0.27654,     1.43     0.557846
"Transformer.MAI1P_176"    0.19081,     4.15     0.509501
"Transformer.MAI1P_177"    0.19172,     3.84     0.510874
"Transformer.MAI1P_178"    0.19038,     6.31     0.511861
"Transformer.MAI1P_179"    0.19742,     3.01     0.521231
"Transformer.MAI1P_180"    0.18830,   100.00     0.508877
"Transformer.MAI1P_181"    0.16791,   100.00     0.419714
"Transformer.MAI1P_182"    0.31332,     1.41     0.602366
"Transformer.MAI1P_183"    0.16768,     7.27     0.417202
"Transformer.MAI1P_184"    0.18895,   100.00     0.510616
"Transformer.MAI1P_185"    0.27544,     1.42     0.629295
"Transformer.MAI1P_186"    0.28742,   100.00     1.05848
"Transformer.MAI1P_187"    0.19076,     4.17     0.509431
"Transformer.MAI1P_188"    0.29038,   100.00     1.06937
"Transformer.MAI1P_189"    0.11962,   100.00     0.330732
"Transformer.MAI1P_190"    0.11969,   100.00     0.330923
"Transformer.MAI1P_191"    0.36297,   100.00     1.31044
"Transformer.MAI1P_192"    0.11959,   100.00     0.330632
"Transformer.MAI1P_193"    0.11961,   100.00     0.330698
"Transformer.MAI1P_194"    0.29102,     5.30     1.06265
"Transformer.MAI1P_195"    0.28741,   100.00     1.05842
"Transformer.MAI1P_196"    0.36650,   100.00     1.32317
"Transformer.MAI1P_197"    0.17591,     3.29     0.429588
"Transformer.MAI1P_198"    0.29019,   100.00     1.06866
"Transformer.MAI1P_199"    0.29019,   100.00     1.06868
...
"Capacitor.CAP0"           0.00000,      0.0     -301.668
"Capacitor.CAP1"           0.00000,      0.0     -306.377
"Line.LV1FMAI1"            0.01476,     0.08     0.00271705
"Line.LV1FMAI2"            0.15791,     1.20     0.0290172
"Line.LV1FMAI3"            0.01943,     0.41     0.00360927
"Line.LV1FMAI4"            0.00002,      0.0     3.47705E-006
"Line.LV1FMAI5"            0.00003,      0.0     5.57389E-006
"Line.LV1FMAI6"            0.12054,     1.02     0.0221222
"Line.LV1FMAI7"            0.00003,      0.0     5.42888E-006
"Line.LV1FMAI8"            0.00001,      0.0     8.07882E-006
"Line.LV1FMAI9"            0.00001,      0.0     8.93038E-007
"Line.LV1FMAI10"           0.00006,      0.0     1.04145E-005
"Line.LV1FMAI11"           0.04338,     0.58     0.0079664
"Line.LV1FMAI12"           0.00003,      0.0     6.15184E-006
"Line.LV1FMAI13"           0.00014,      0.0     2.5007E-005
"Line.LV1FMAI14"           0.00003,      0.0     5.57863E-006
"Line.LV1FMAI15"           0.00125,     0.07     0.00022789
"Line.LV1FMAI16"           0.00000,      0.0     -1.76483E-007
"Line.LV1FMAI17"           0.03009,     0.46     0.0055183
"Line.LV1FMAI18"           0.00001,      0.0     1.05803E-005
"Line.LV1FMAI19"           0.00004,      0.0     6.89676E-006
"Line.LV1FMAI20"           0.00001,      0.0     9.64303E-007
"Line.LV1FMAI21"           0.00000,      0.0     3.03137E-007
"Line.LV1FMAI22"           0.00025,      0.0     4.58855E-005
"Line.LV1FMAI23"           0.00000,      0.0     -1.25382E-007
"Line.LV1FMAI24"           0.00072,      0.0     0.000132633
"Line.LV1FMAI25"           0.00001,      0.0     1.79251E-006
"Line.LV1FMAI26"           0.00186,     0.07     0.000340637
"Line.LV1FMAI27"           0.00005,      0.0     8.62427E-006
"Line.LV1FMAI28"           0.00029,      0.0     5.29734E-005
"Line.LV1FMAI29"           0.00956,     0.35     0.00181802
"Line.LV1FMAI30"           0.00005,      0.0     7.86555E-006
"Line.LV1FMAI31"           0.00006,      0.0     1.11278E-005
"Line.LV1FMAI32"           0.00027,      0.0     4.95372E-005
"Line.LV1FMAI33"           0.00064,      0.0     0.000116134
"Line.LV1FMAI34"           0.00001,      0.0     1.33472E-006
"Line.LV1FMAI35"           0.00059,      0.0     0.000107748
"Line.LV1FMAI36"           0.00007,      0.0     6.13608E-005
"Line.LV1FMAI37"           0.00002,      0.0     3.07267E-006
"Line.LV1FMAI38"           0.00536,     0.05     0.0010614
"Line.LV1FMAI39"           0.00000,      0.0     -9.89817E-007
"Line.LV1FMAI40"           0.09689,     0.95     0.0192962
"Line.LV1FMAI41"           0.00000,      0.0     -2.07301E-007
"Line.LV1FMAI42"           0.00004,      0.0     7.19817E-006
"Line.LV1FMAI43"           0.04807,     0.48     0.00940266
"Line.LV1FMAI44"           0.00003,      0.0     2.68533E-005
"Line.LV1FMAI45"           0.00305,     0.12     0.000593017
"Line.LV1FMAI46"           0.00849,     0.21     0.0015749
"Line.LV1FMAI47"           0.00000,      0.0     2.413E-007
"Line.LV1FMAI48"           0.00001,      0.0     9.37521E-006
"Line.LV1FMAI49"           0.00022,      0.0     4.08577E-005
"Line.LV1FMAI50"           0.00009,      0.0     8.10672E-005
"Line.LV1FMAI51"           0.00003,      0.0     5.16217E-006
"Line.LV1FMAI52"           0.00016,      0.0     2.8427E-005
"Line.LV1FMAI53"           0.00005,      0.0     4.92231E-005
"Line.LV1FMAI54"           0.00000,      0.0     4.11591E-007
"Line.LV1FMAI55"           0.00034,      0.0     6.16714E-005
"Line.LV1FMAI56"           0.00006,      0.0     5.48661E-005
"Line.LV1FMAI57"           0.00000,      0.0     -9.62044E-008
"Line.LV1FMAI58"           0.00001,      0.0     9.04025E-007
"Line.LV1FMAI59"           0.00000,      0.0     2.42532E-007
"Line.LV1FMAI60"           0.00002,      0.0     4.04375E-006
"Line.LV1FMAI61"           0.00001,      0.0     1.1911E-006
"Line.LV1FMAI62"           0.00001,      0.0     1.59538E-006
"Line.LV1FMAI63"           0.00000,      0.0     -1.18851E-007
"Line.LV1FMAI64"           0.00002,      0.0     3.64451E-006
"Line.LV1FMAI65"           0.00000,      0.0     1.04878E-007
"Line.LV1FMAI66"           0.00000,      0.0     5.2442E-008
"Line.LV1FMAI67"           0.00000,      0.0     2.20901E-007
"Line.LV1FMAI68"           0.00167,     0.09     0.000304907
"Line.LV1FMAI69"           0.00001,      0.0     7.26469E-007
"Line.LV1FMAI70"           0.00025,      0.0     4.55543E-005
"Line.LV1FMAI71"           0.00001,      0.0     1.18253E-005
"Line.LV1FMAI72"           0.00002,      0.0     2.57753E-006
"Line.LV1FMAI73"           0.00000,      0.0     -6.38739E-007
"Line.LV1FMAI74"           0.00000,      0.0     -1.11582E-007
"Line.LV1FMAI75"           0.00075,      0.0     0.000138116
"Line.LV1FMAI76"           0.00000,      0.0     5.24383E-008
"Line.LV1FMAI77"           0.00466,     0.05     0.000854126
"Line.LV1FMAI78"           0.03181,     0.38     0.00583401
"Line.LV1FMAI79"           0.00005,      0.0     9.53188E-006
"Line.LV1FMAI80"           0.00018,      0.0     3.25501E-005
"Line.LV1FMAI81"           0.00290,     0.06     0.000532253
"Line.LV1FMAI82"           0.01462,     0.33     0.00268129
"Line.LV1FMAI83"           0.00001,      0.0     1.83566E-006
"Line.LV1FMAI84"           0.00001,      0.0     1.42432E-006
"Line.LV1FMAI85"           0.00130,     0.05     0.000237759
"Line.LV1FMAI86"           0.00012,      0.0     2.11291E-005
"Line.LV1FMAI87"           0.00064,      0.0     0.000118143
"Line.LV1FMAI88"           0.00000,      0.0     -1.03561E-006
"Line.LV1FMAI89"           0.00000,      0.0     -1.31435E-007
"Line.LV1FMAI90"           0.00050,      0.0     9.1103E-005
"Line.LV1FMAI91"           0.00000,      0.0     -3.3756E-007
"Line.LV1FMAI92"           0.00106,     0.05     0.000194431
"Line.LV1FMAI93"           0.00006,      0.0     9.97509E-006
"Line.LV1FMAI94"           0.00037,      0.0     6.8065E-005
"Line.LV1FMAI95"           0.00001,      0.0     1.79957E-006
"Line.LV1FMAI96"           0.00163,     0.07     0.000297726
"Line.LV1FMAI97"           0.00009,      0.0     1.69449E-005
"Line.LV1FMAI98"           0.00001,      0.0     1.25431E-006
"Line.LV1FMAI99"           0.00006,      0.0     1.04558E-005
"Line.LV1FMAI100"          0.00007,      0.0     1.22746E-005
"Line.LV1FMAI101"          0.00273,     0.03     0.000500689
"Line.LV1FMAI102"          0.00122,     0.08     0.000223809
"Line.LV1FMAI103"          0.02253,     0.41     0.00413245
"Line.LV1FMAI104"          0.00003,      0.0     5.25156E-006
"Line.LV1FMAI105"          0.00000,      0.0     -8.90787E-008
"Line.LV1FMAI106"          0.00001,      0.0     9.06323E-007
"Line.LV1FMAI107"          0.00001,      0.0     2.2578E-006
"Line.LV1FMAI108"          0.00126,     0.08     0.000230953
"Line.LV1FMAI109"          0.00003,      0.0     5.56372E-006
"Line.LV1FMAI110"          0.00061,      0.0     0.000112033
"Line.LV1FMAI111"          0.00039,      0.0     7.11164E-005
"Line.LV1FMAI112"          0.00013,      0.0     2.42648E-005
"Line.LV1FMAI113"          0.00000,      0.0     6.56518E-009
"Line.LV1FMAI114"          0.00000,      0.0     6.56271E-009
"Line.LV1FMAI115"          0.00000,      0.0     3.28105E-009
"Line.LV1FMAI116"          0.00000,      0.0     3.27984E-009
"Line.LV1FMAI117"          0.00008,      0.0     1.45434E-005
"Line.LV1FMAI118"          0.00483,     0.05     0.000886035
"Line.LV1FMAI119"          0.08915,     0.87     0.0163627
"Line.LV1FMAI120"          0.00268,     0.04     0.000491437
"Line.LV1FMAI121"          0.04648,     0.60     0.00853483
"Line.LV1FMAI122"          0.00018,      0.0     3.25151E-005
"Line.LV1FMAI123"          0.00046,      0.0     8.47538E-005
"Line.LV1FMAI124"          0.00001,      0.0     1.49564E-006
"Line.LV1FMAI125"          0.00050,      0.0     9.04131E-005
"Line.LV1FMAI126"          0.00001,      0.0     2.54442E-006
"Line.LV1FMAI127"          0.00002,      0.0     1.15868E-005
"Line.LV1FMAI128"          0.00056,      0.0     0.000103253
"Line.LV1FMAI129"          0.00020,      0.0     3.56574E-005
"Line.LV1FMAI130"          0.00018,      0.0     3.34093E-005
"Line.LV1FMAI131"          0.00011,      0.0     1.96757E-005
"Line.LV1FMAI132"          0.00084,      0.0     0.000154086
"Line.LV1FMAI133"          0.02340,     0.11     0.00429328
"Line.LV1FMAI134"          0.09002,     0.79     0.0165126
"Line.LV1FMAI135"          0.03666,     0.53     0.00672412
"Line.LV1FMAI136"          0.00292,     0.08     0.000535119
"Line.LV1FMAI137"          0.00207,     0.05     0.00037897
"Line.LV1FMAI138"          0.04641,     0.58     0.00851284
"Line.LV1FMAI139"          0.00000,      0.0     3.35105E-008
"Line.LV1FMAI140"          0.00146,     0.05     0.000268566
"Line.LV1FMAI141"          0.00000,      0.0     -8.9216E-007
"Line.LV1FMAI142"          0.00067,      0.0     0.000121985
"Line.LV1FMAI143"          0.00571,     0.11     0.00104757
"Line.LV1FMAI144"          0.00000,      0.0     6.78201E-007
"Line.LV1FMAI145"          0.00020,      0.0     3.56088E-005
"Line.LV1FMAI146"          0.01780,     0.38     0.00326364
"Line.LV1FMAI147"          0.00193,     0.09     0.000353051
"Line.LV1FMAI148"          0.00029,      0.0     5.25594E-005
"Line.LV1FMAI149"          0.00061,      0.0     0.000112444
"Line.LV1FMAI150"          0.00645,     0.05     0.00118406
"Line.LV1FMAI151"          0.02364,     0.47     0.00433475
"Line.LV1FMAI152"          0.01901,     0.50     0.00348481
"Line.LV1FMAI153"          0.00137,     0.07     0.000251009
"Line.LV1FMAI154"          0.00032,      0.0     5.79104E-005
"Line.LV1FMAI155"          0.00007,      0.0     1.32631E-005
"Line.LV1FMAI156"          0.00000,      0.0     -5.60085E-007
"Line.LV1FMAI157"          0.00032,      0.0     0.000301093
"Line.LV1FMAI158"          0.00121,     0.07     0.000222151
"Line.LV1FMAI159"          0.00139,     0.08     0.000255068
"Line.LV1FMAI160"          0.00025,      0.0     4.594E-005
"Line.LV1FMAI161"          0.00154,     0.10     0.000281828
"Line.LV1FMAI162"          0.00007,      0.0     1.27542E-005
"Line.LV1FMAI163"          0.00006,      0.0     9.99883E-006
"Line.LV1FMAI164"          0.00004,      0.0     6.37704E-006
"Line.LV1FMAI165"          0.00003,      0.0     4.9994E-006
"Line.LV1FMAI166"          0.00001,      0.0     1.9657E-006
"Line.LV1FMAI167"          0.00001,      0.0     9.82837E-007
"Line.LV1FMAI168"          0.00003,      0.0     4.53609E-006
"Line.LV1FMAI169"          0.00090,     0.07     0.000164855
"Line.LV1FMAI170"          0.00003,      0.0     4.5301E-006
"Line.LV1FMAI171"          0.00000,      0.0     -9.00727E-007
"Line.LV1FMAI172"          0.00001,      0.0     1.02958E-006
"Line.LV1FMAI173"          0.00036,      0.0     6.55297E-005
"Line.LV1FMAI174"          0.00004,      0.0     7.64987E-006
"Line.LV1FMAI175"          0.00006,      0.0     1.02971E-005
"Line.LV1FMAI176"          0.00239,     0.09     0.000437283
"Line.LV1FMAI177"          0.01029,     0.06     0.0018876
"Line.LV1FMAI178"          0.03953,     0.30     0.00725196
"Line.LV1FMAI179"          0.00319,     0.12     0.000585289
"Line.LV1FMAI180"          0.00000,      0.0     -9.36281E-007
"Line.LV1FMAI181"          0.00048,      0.0     0.000452836
"Line.LV1FMAI182"          0.03253,     0.30     0.00596624
"Line.LV1FMAI183"          0.00005,      0.0     9.21816E-006
"Line.LV1FMAI184"          0.00022,      0.0     3.93821E-005
"Line.LV1FMAI185"          0.00050,      0.0     9.0521E-005
"Line.LV1FMAI186"          0.00000,      0.0     7.11502E-008
"Line.LV1FMAI187"          0.00080,      0.0     0.000146864
"Line.LV1FMAI188"          0.00000,      0.0     -3.71453E-008
"Line.LV1FMAI189"          0.00053,      0.0     9.73306E-005
"Line.LV1FMAI190"          0.00000,      0.0     3.55752E-008
"Line.LV1FMAI191"          0.00027,      0.0     4.8665E-005
"Line.LV1FMAI192"          0.00001,      0.0     1.1316E-006
"Line.LV1FMAI193"          0.00010,      0.0     1.8183E-005
"Line.LV1FMAI194"          0.00045,      0.0     8.1105E-005
"Line.LV1FMAI195"          0.00005,      0.0     9.10736E-006
"Line.LV1FMAI196"          0.00022,      0.0     4.06155E-005
"Line.LV1FMAI197"          0.00000,      0.0     -7.06463E-007
"Line.LV1FMAI198"          0.00076,      0.0     0.000138078
"Line.LV1FMAI199"          0.00001,      0.0     1.45012E-006
"Line.LV1FMAI200"          0.00014,      0.0     2.56469E-005
...

LINE LOSSES=                       103.2 kW
TRANSFORMER LOSSES=                135.1 kW

TOTAL LOSSES=                      238.3 kW

TOTAL LOAD POWER =                3894.1 kW
Percent Losses for Circuit =      6.12 %
